SOL 101
CEND
TITLE = AeroWing CAE Preview BDF Sample
SUBCASE 1
  SPC = 1
  LOAD = 2
BEGIN BULK
GRID,1,,0.,0.,0.
GRID,2,,1.,0.,0.
GRID,3,,1.,1.,0.
GRID,4,,0.,1.,0.
CQUAD4,10,100,1,2,3,4
PSHELL,100,200,0.05
MAT1,200,7.0E10,,0.33,2700.
SPC1,1,123456,1
FORCE,2,3,,100.,0.,0.,-1.
ENDDATA
